%%%%%%%%%%%%%%%%%%%%%%%%%%%%%%%%%%%%%%%%%%%%%%%%%%%%%%%%%%%%%%%%%%%%%%%%%%%%%%%%
%                                                                              %
% SU2 configuration file                                                       %
% Case description:  supersonic nozzle                                         %
% Author: ravi                                                                 %
%                                                                              %
%%%%%%%%%%%%%%%%%%%%%%%%%%%%%%%%%%%%%%%%%%%%%%%%%%%%%%%%%%%%%%%%%%%%%%%%%%%%%%%%

% ------------- DIRECT, ADJOINT, AND LINEARIZED PROBLEM DEFINITION ------------%
SOLVER= RANS
KIND_TURB_MODEL= SST
MATH_PROBLEM= DIRECT
RESTART_SOL= NO
SYSTEM_MEASUREMENTS= SI

% -------------------- COMPRESSIBLE FREE-STREAM DEFINITION --------------------%
REF_DIMENSIONALIZATION= DIMENSIONAL
MACH_NUMBER= 1E-9
AOA= 0.0
SIDESLIP_ANGLE= 0.0
INIT_OPTION= TD_CONDITIONS
FREESTREAM_OPTION= TEMPERATURE_FS

% PS1-Max-thrust conditions: MEOP = 5.88 MPa, Tc = 2900 K, Pa = 74293.6 Pa @ alt = 5.6 Km 
FREESTREAM_PRESSURE=  5880000.0
FREESTREAM_TEMPERATURE=  2900.0

% -------------------- BOUNDARY CONDITION DEFINITION --------------------------%
MARKER_HEATFLUX= ( WALL, 0.0 )
MARKER_SYM= ( NONE )

% Riemann boundary marker(s) (NONE = no marker)
% case 1: PS1-Max-thrust conditions: without SITVC (Edit python source to avoid INFLOW2)
%MARKER_RIEMANN= ( INFLOW1, TOTAL_CONDITIONS_PT,  5880000.0,  2900.0 , 1.0, 0.0, 0.0, OUTFLOW, STATIC_PRESSURE, 0.0, 0.0, 0.0, 0.0, 0.0 )
% case 2: PS1-Max-thrust conditions: with SITVC
% INFLOW1, TOTAL_CONDITIONS_PT,  5880000.0 (5.88 MPa), 2900 K
% INFLOW2, STATIC_PRESSURE, 1000000.0 (10.0 MPa)   or 980665.0 (10 ksc), 373.15 K, -0.996, -0.0776, 0.0
MARKER_RIEMANN= ( INFLOW1, TOTAL_CONDITIONS_PT,  5880000.0,  2900.0 , 1.0, 0.0, 0.0, INFLOW2, STATIC_PRESSURE, 6000000.0, 373.15, -0.996, -0.0776, 0.0, OUTFLOW, STATIC_PRESSURE, 74293.6, 0.0, 0.0, 0.0, 0.0 )

% ---- IDEAL GAS, POLYTROPIC, VAN DER WAALS AND PENG ROBINSON CONSTANTS -------%
FLUID_MODEL= PR_GAS
GAMMA_VALUE = 1.1681
GAS_CONSTANT = 340.85
% case 1, 2, 3 critical pressure = 1 atm = 10 * 101325 =1013250 Pa, 2026500.0
CRITICAL_TEMPERATURE= 830.0
CRITICAL_PRESSURE= 2026500.0
ACENTRIC_FACTOR=  0.068

% --------------------------- VISCOSITY MODEL ---------------------------------%
VISCOSITY_MODEL= CONSTANT_VISCOSITY
MU_CONSTANT= 1.21409E-05

% --------------------------- THERMAL CONDUCTIVITY MODEL ----------------------%
CONDUCTIVITY_MODEL= CONSTANT_CONDUCTIVITY
THERMAL_CONDUCTIVITY_CONSTANT= 0.030542828

% ------------- COMMON PARAMETERS DEFINING THE NUMERICAL METHOD ---------------%
NUM_METHOD_GRAD= GREEN_GAUSS
CFL_NUMBER= 10.0
CFL_ADAPT= YES
CFL_ADAPT_PARAM= ( 0.1, 2.0, 0.01, 1000.0 )
MAX_DELTA_TIME= 1E6

% ----------- SLOPE LIMITER AND DISSIPATION SENSOR DEFINITION -----------------%
MUSCL_FLOW= YES
SLOPE_LIMITER_FLOW= NONE
MUSCL_TURB= NO

% ------------------------ LINEAR SOLVER DEFINITION ---------------------------%
LINEAR_SOLVER= FGMRES
LINEAR_SOLVER_PREC= ILU
LINEAR_SOLVER_ILU_FILL_IN= 0
LINEAR_SOLVER_ERROR= 1E-6
LINEAR_SOLVER_ITER= 10

% -------------------------- MULTIGRID PARAMETERS -----------------------------%
% Multi-grid levels (0 = no multi-grid)
MGLEVEL= 0

% -------------------- FLOW NUMERICAL METHOD DEFINITION -----------------------%
CONV_NUM_METHOD_FLOW= ROE
ENTROPY_FIX_COEFF= 0.1
TIME_DISCRE_FLOW= EULER_IMPLICIT

% -------------------- TURBULENT NUMERICAL METHOD DEFINITION ------------------%
CONV_NUM_METHOD_TURB= SCALAR_UPWIND
TIME_DISCRE_TURB= EULER_IMPLICIT
CFL_REDUCTION_TURB= 1.0

% --------------------------- CONVERGENCE PARAMETERS --------------------------%
ITER= 3000
CONV_RESIDUAL_MINVAL= -24
CONV_STARTITER= 10

% ------------------------- INPUT/OUTPUT INFORMATION --------------------------%
MESH_FILENAME= conical_nozzle_cgrid.su2
MESH_FORMAT= SU2
MESH_OUT_FILENAME= mesh_out.su2
SOLUTION_FILENAME= solution_flow.dat
TABULAR_FORMAT= CSV
CONV_FILENAME= history
RESTART_FILENAME= restart_flow.dat
VOLUME_FILENAME= flow
SURFACE_FILENAME= surface_flow
OUTPUT_WRT_FREQ= 1000
SCREEN_OUTPUT= (INNER_ITER, RMS_DENSITY, RMS_TKE, RMS_ENERGY))
